<routes>

<vType id="car" accel="2.6" decel="4.5" sigma="0.5" length="5" maxSpeed="13.9"/>

<vType id="slowCar" accel="1.0" decel="3.0" sigma="0.5" length="5" maxSpeed="5"/>

<route id="r0" edges="E0"/>

<flow id="traffic" type="car" route="r0" begin="0" end="200" vehsPerHour="1200"/>

<vehicle id="slowVehicle" type="slowCar" route="r0" depart="30"/>

</routes>